src/test/resources/testForNonEvacuatedEnergyNoPermanentLimit.xiidm
<?xml version="1.0" encoding="UTF-8"?>
<iidm:network xmlns:iidm="http://www.powsybl.org/schema/iidm/1_10" xmlns:gs="http://www.powsybl.org/schema/iidm/ext/generator_startup/1_1" xmlns:apc="http://www.powsybl.org/schema/iidm/ext/active_power_control/1_1" id="fourSubstations" caseDate="2017-06-25T00:00:00.000Z" forecastDistance="0" sourceFormat="test" minimumValidationLevel="STEADY_STATE_HYPOTHESIS">
    <iidm:substation id="S3">
        <iidm:property name="regionCvg" value="NORTH"/>
        <iidm:voltageLevel id="S3VL1" nominalV="400.0" lowVoltageLimit="390.0" highVoltageLimit="440.0" topologyKind="NODE_BREAKER">
            <iidm:nodeBreakerTopology>
                <iidm:busbarSection id="S3VL1_BBS" name="S3VL1_BBS" node="0"/>
                <iidm:switch id="S3VL1_BBS_LINES2S3_DISCONNECTOR" name="S3VL1_BBS_LINES2S3_DISCONNECTOR" kind="DISCONNECTOR" retained="false" open="false" node1="0" node2="1"/>
                <iidm:switch id="S3VL1_LINES2S3_BREAKER" name="S3VL1_LINES2S3_BREAKER" kind="BREAKER" retained="true" open="false" node1="1" node2="2"/>
                <iidm:switch id="S3VL1_BBS_LD5_DISCONNECTOR" name="S3VL1_BBS_LD5_DISCONNECTOR" kind="DISCONNECTOR" retained="false" open="false" node1="0" node2="3"/>
                <iidm:switch id="S3VL1_BBS_GTH2_DISCONNECTOR" name="S3VL1_BBS_GTH2_DISCONNECTOR" kind="DISCONNECTOR" retained="false" open="false" node1="0" node2="5"/>
                <iidm:switch id="S3VL1_GTH2_BREAKER" name="S3VL1_GTH2_BREAKER" kind="BREAKER" retained="true" open="false" node1="5" node2="6"/>
                <iidm:switch id="S3VL1_BBS_LINES3S4_DISCONNECTOR" name="S3VL1_BBS_LINES3S4_DISCONNECTOR" kind="DISCONNECTOR" retained="false" open="false" node1="0" node2="7"/>
                <iidm:switch id="S3VL1_LINES3S4_BREAKER" name="S3VL1_LINES3S4_BREAKER" kind="BREAKER" retained="true" open="false" node1="7" node2="8"/>
                <iidm:switch id="S3VL1_BBS_LCC2_DISCONNECTOR" name="S3VL1_BBS_LCC2_DISCONNECTOR" kind="DISCONNECTOR" retained="false" open="false" node1="0" node2="9"/>
                <iidm:switch id="S3VL1_LCC2_BREAKER" name="S3VL1_LCC2_BREAKER" kind="BREAKER" retained="true" open="false" node1="9" node2="10"/>
                <iidm:switch id="S3VL1_LD5_BREAKER" name="S3VL1_LD5_BREAKER" kind="BREAKER" retained="true" open="false" node1="3" node2="4"/>
                <iidm:switch id="line32_BREAKER" kind="BREAKER" retained="true" open="false" node1="11" node2="12"/>
                <iidm:switch id="line32_DISCONNECTOR" kind="DISCONNECTOR" retained="false" open="false" node1="12" node2="0"/>
                <iidm:bus v="335.2835102473345" angle="0.1779149947512513" nodes="0,1,2,3,4,5,6,7,8,9,10,11,12"/>
            </iidm:nodeBreakerTopology>
            <iidm:generator id="GTH2" energySource="SOLAR" minP="0.0" maxP="150.0" voltageRegulatorOn="true" targetP="100.0" targetV="400.0" targetQ="71.8487" node="6" p="-100.0" q="-194.0625">
                <iidm:reactiveCapabilityCurve>
                    <iidm:point p="0.0" minQ="-169.3" maxQ="200.0"/>
                    <iidm:point p="400.0" minQ="-174.55" maxQ="176.25"/>
                </iidm:reactiveCapabilityCurve>
            </iidm:generator>
            <iidm:load id="LD5" loadType="UNDEFINED" p0="200.0" q0="5.0" node="4" p="200.0" q="5.0"/>
            <iidm:lccConverterStation id="LCC2" name="LCC2" lossFactor="1.1" powerFactor="0.6" node="10" p="-78.21098549554061" q="104.28130751941819"/>
        </iidm:voltageLevel>
    </iidm:substation>
    <iidm:substation id="S4">
        <iidm:voltageLevel id="S4VL1" nominalV="400.0" lowVoltageLimit="390.0" highVoltageLimit="440.0" topologyKind="NODE_BREAKER">
            <iidm:nodeBreakerTopology>
                <iidm:busbarSection id="S4VL1_BBS" name="S4VL1_BBS" node="0"/>
                <iidm:switch id="S4VL1_BBS_LINES3S4_DISCONNECTOR" name="S4VL1_BBS_LINES3S4_DISCONNECTOR" kind="DISCONNECTOR" retained="false" open="false" node1="0" node2="5"/>
                <iidm:switch id="S4VL1_LINES3S4_BREAKER" name="S4VL1_LINES3S4_BREAKER" kind="BREAKER" retained="true" open="false" node1="5" node2="6"/>
                <iidm:switch id="S4VL1_BBS_LD6_DISCONNECTOR" name="S4VL1_BBS_LD6_DISCONNECTOR" kind="DISCONNECTOR" retained="false" open="false" node1="0" node2="1"/>
                <iidm:switch id="S4VL1_LD6_BREAKER" name="S4VL1_LD6_BREAKER" kind="BREAKER" retained="true" open="false" node1="1" node2="2"/>
                <iidm:switch id="S4VL1_BBS_SVC_DISCONNECTOR" name="S4VL1_BBS_SVC_DISCONNECTOR" kind="DISCONNECTOR" retained="false" open="false" node1="0" node2="3"/>
                <iidm:switch id="S4VL1_SVC_BREAKER" name="S4VL1_SVC_BREAKER" kind="BREAKER" retained="true" open="false" node1="3" node2="4"/>
                <iidm:switch id="TEST1_BREAKER" kind="BREAKER" retained="true" open="false" node1="7" node2="8"/>
                <iidm:switch id="TEST1_DISCONNECTOR" kind="DISCONNECTOR" retained="false" open="false" node1="8" node2="0"/>
                <iidm:switch id="GROUP1_BREAKER" kind="BREAKER" retained="true" open="false" node1="9" node2="10"/>
                <iidm:switch id="GROUP1_DISCONNECTOR" kind="DISCONNECTOR" retained="false" open="false" node1="10" node2="0"/>
                <iidm:switch id="GROUP2_BREAKER" kind="BREAKER" retained="true" open="false" node1="11" node2="12"/>
                <iidm:switch id="GROUP2_DISCONNECTOR" kind="DISCONNECTOR" retained="false" open="false" node1="12" node2="0"/>
                <iidm:switch id="GROUP3_BREAKER" kind="BREAKER" retained="true" open="false" node1="13" node2="14"/>
                <iidm:switch id="GROUP3_DISCONNECTOR" kind="DISCONNECTOR" retained="false" open="false" node1="14" node2="0"/>
                <iidm:bus v="400.0" angle="0.639588341914342" nodes="0,1,2,3,4,5,6,7,8,9,10,11,12,13,14"/>
            </iidm:nodeBreakerTopology>
            <iidm:generator id="TEST1" energySource="SOLAR" minP="0.0" maxP="50.0" voltageRegulatorOn="false" targetP="24.0" targetQ="20.0" node="7" p="-24.0" q="-20.0">
                <iidm:minMaxReactiveLimits minQ="-1.7976931348623157E308" maxQ="1.7976931348623157E308"/>
            </iidm:generator>
            <iidm:generator id="GROUP1" energySource="WIND" minP="0.0" maxP="100.0" voltageRegulatorOn="false" targetP="100.0" targetV="400.0" targetQ="70.0" node="9" p="-100.0" q="-70.0">
                <iidm:minMaxReactiveLimits minQ="-1.7976931348623157E308" maxQ="1.7976931348623157E308"/>
            </iidm:generator>
            <iidm:generator id="GROUP2" energySource="WIND" minP="0.0" maxP="100.0" voltageRegulatorOn="false" targetP="100.0" targetV="400.0" targetQ="70.0" node="11" p="-100.0" q="-70.0">
                <iidm:minMaxReactiveLimits minQ="-1.7976931348623157E308" maxQ="1.7976931348623157E308"/>
            </iidm:generator>
            <iidm:generator id="GROUP3" energySource="WIND" minP="0.0" maxP="100.0" voltageRegulatorOn="false" targetP="100.0" targetV="400.0" targetQ="70.0" node="13" p="-100.0" q="-70.0">
                <iidm:minMaxReactiveLimits minQ="-1.7976931348623157E308" maxQ="1.7976931348623157E308"/>
            </iidm:generator>
            <iidm:load id="LD6" loadType="UNDEFINED" p0="240.0" q0="10.0" node="2" p="240.0" q="10.0"/>
            <iidm:staticVarCompensator id="SVC" bMin="-0.05" bMax="0.05" voltageSetpoint="400.0" regulationMode="VOLTAGE" node="4" p="0.0" q="-1756.3442450900034"/>
        </iidm:voltageLevel>
    </iidm:substation>
    <iidm:substation id="CC2_site1" name="CC2_site1">
        <iidm:voltageLevel id="CC2_poste1" name="CC2_poste1" nominalV="225.0" topologyKind="NODE_BREAKER">
            <iidm:nodeBreakerTopology>
                <iidm:busbarSection id="CC2_poste1_1_1" node="0"/>
                <iidm:switch id="newLine1_BREAKER" kind="BREAKER" retained="true" open="false" node1="1" node2="2"/>
                <iidm:switch id="newLine1_DISCONNECTOR" kind="DISCONNECTOR" retained="false" open="false" node1="2" node2="0"/>
                <iidm:switch id="newConso_BREAKER" kind="BREAKER" retained="true" open="false" node1="3" node2="4"/>
                <iidm:switch id="newConso_DISCONNECTOR" kind="DISCONNECTOR" retained="false" open="false" node1="4" node2="0"/>
                <iidm:switch id="newGroup1_BREAKER" kind="BREAKER" retained="true" open="false" node1="5" node2="6"/>
                <iidm:switch id="newGroup1_DISCONNECTOR" kind="DISCONNECTOR" retained="false" open="false" node1="6" node2="0"/>
            </iidm:nodeBreakerTopology>
            <iidm:generator id="newGroup1" energySource="SOLAR" minP="0.0" maxP="20.0" voltageRegulatorOn="false" targetP="5.0" targetQ="2.0" node="5">
                <iidm:minMaxReactiveLimits minQ="-1.7976931348623157E308" maxQ="1.7976931348623157E308"/>
            </iidm:generator>
            <iidm:load id="newConso" loadType="UNDEFINED" p0="10.0" q0="9.0" node="3"/>
        </iidm:voltageLevel>
    </iidm:substation>
    <iidm:substation id="S1">
        <iidm:property name="regionCvg" value="SOUTH"/>
        <iidm:voltageLevel id="S1VL1" nominalV="400.0" lowVoltageLimit="220.0" highVoltageLimit="240.0" topologyKind="NODE_BREAKER">
            <iidm:nodeBreakerTopology>
                <iidm:busbarSection id="S1VL1_BBS" name="S1VL1_BBS" node="0"/>
                <iidm:switch id="S1VL1_BBS_LD1_DISCONNECTOR" name="S1VL1_BBS_LD1_DISCONNECTOR" kind="DISCONNECTOR" retained="false" open="false" node1="0" node2="1"/>
                <iidm:switch id="S1VL1_LD1_BREAKER" name="S1VL1_LD1_BREAKER" kind="BREAKER" retained="true" open="false" node1="1" node2="2"/>
                <iidm:switch id="S1VL1_BBS_TWT_DISCONNECTOR" name="S1VL1_BBS_TWT_DISCONNECTOR" kind="DISCONNECTOR" retained="false" open="false" node1="0" node2="3"/>
                <iidm:switch id="S1VL1_TWT_BREAKER" name="S1VL1_TWT_BREAKER" kind="BREAKER" retained="true" open="false" node1="3" node2="4"/>
                <iidm:switch id="ABC_BREAKER" kind="BREAKER" retained="true" open="false" node1="5" node2="6"/>
                <iidm:switch id="ABC_DISCONNECTOR" kind="DISCONNECTOR" retained="false" open="false" node1="6" node2="0"/>
                <iidm:switch id="line21_BREAKER" kind="BREAKER" retained="true" open="false" node1="7" node2="8"/>
                <iidm:switch id="line21_DISCONNECTOR" kind="DISCONNECTOR" retained="false" open="false" node1="8" node2="0"/>
                <iidm:switch id="line31_BREAKER" kind="BREAKER" retained="true" open="false" node1="9" node2="10"/>
                <iidm:switch id="line31_DISCONNECTOR" kind="DISCONNECTOR" retained="false" open="false" node1="10" node2="0"/>
                <iidm:bus v="266.45217276232984" angle="0.0" nodes="0,1,2,3,4,5,6,7,8,9,10"/>
            </iidm:nodeBreakerTopology>
            <iidm:generator id="ABC" energySource="HYDRO" minP="0.0" maxP="100.0" voltageRegulatorOn="false" targetP="85.357" targetV="400.0" targetQ="512.081" node="5" p="-52.601743885106785" q="-512.081">
                <iidm:reactiveCapabilityCurve>
                    <iidm:point p="0.0" minQ="-769.3" maxQ="860.0"/>
                    <iidm:point p="100.0" minQ="-864.55" maxQ="946.25"/>
                </iidm:reactiveCapabilityCurve>
            </iidm:generator>
            <iidm:load id="LD1" loadType="UNDEFINED" p0="80.0" q0="10.0" node="2" p="80.0" q="10.0"/>
        </iidm:voltageLevel>
        <iidm:voltageLevel id="S1VL2" nominalV="400.0" lowVoltageLimit="390.0" highVoltageLimit="440.0" topologyKind="NODE_BREAKER">
            <iidm:nodeBreakerTopology>
                <iidm:busbarSection id="S1VL2_BBS1" name="S1VL2_BBS1" node="0"/>
                <iidm:busbarSection id="S1VL2_BBS2" name="S1VL2_BBS2" node="1"/>
                <iidm:switch id="S1VL2_BBS1_TWT_DISCONNECTOR" name="S1VL2_BBS1_TWT_DISCONNECTOR" kind="DISCONNECTOR" retained="false" open="false" node1="0" node2="2"/>
                <iidm:switch id="S1VL2_BBS2_TWT_DISCONNECTOR" name="S1VL2_BBS2_TWT_DISCONNECTOR" kind="DISCONNECTOR" retained="false" open="true" node1="1" node2="2"/>
                <iidm:switch id="S1VL2_TWT_BREAKER" name="S1VL2_TWT_BREAKER" kind="BREAKER" retained="true" open="false" node1="2" node2="3"/>
                <iidm:switch id="S1VL2_BBS1_VSC1_DISCONNECTOR" name="S1VL2_BBS1_VSC1_DISCONNECTOR" kind="DISCONNECTOR" retained="false" open="true" node1="0" node2="4"/>
                <iidm:switch id="S1VL2_BBS2_VSC1_DISCONNECTOR" name="S1VL2_BBS2_VSC1_DISCONNECTOR" kind="DISCONNECTOR" retained="false" open="false" node1="1" node2="4"/>
                <iidm:switch id="S1VL2_VSC1_BREAKER" name="S1VL2_VSC1_BREAKER" kind="BREAKER" retained="true" open="false" node1="4" node2="5"/>
                <iidm:switch id="S1VL2_BBS1_GH1_DISCONNECTOR" name="S1VL2_BBS1_GH1_DISCONNECTOR" kind="DISCONNECTOR" retained="false" open="false" node1="0" node2="6"/>
                <iidm:switch id="S1VL2_BBS1_GH2_DISCONNECTOR" name="S1VL2_BBS1_GH2_DISCONNECTOR" kind="DISCONNECTOR" retained="false" open="false" node1="0" node2="8"/>
                <iidm:switch id="S1VL2_BBS1_GH3_DISCONNECTOR" name="S1VL2_BBS1_GH3_DISCONNECTOR" kind="DISCONNECTOR" retained="false" open="false" node1="0" node2="10"/>
                <iidm:switch id="S1VL2_BBS2_GH1_DISCONNECTOR" name="S1VL2_BBS2_GH1_DISCONNECTOR" kind="DISCONNECTOR" retained="false" open="true" node1="1" node2="6"/>
                <iidm:switch id="S1VL2_BBS2_GH2_DISCONNECTOR" name="S1VL2_BBS2_GH2_DISCONNECTOR" kind="DISCONNECTOR" retained="false" open="true" node1="1" node2="8"/>
                <iidm:switch id="S1VL2_BBS2_GH3_DISCONNECTOR" name="S1VL2_BBS2_GH3_DISCONNECTOR" kind="DISCONNECTOR" retained="false" open="true" node1="1" node2="10"/>
                <iidm:switch id="S1VL2_GH1_BREAKER" name="S1VL2_GH1_BREAKER" kind="BREAKER" retained="true" open="false" node1="6" node2="7"/>
                <iidm:switch id="S1VL2_GH2_BREAKER" name="S1VL2_GH2_BREAKER" kind="BREAKER" retained="true" open="false" node1="8" node2="9"/>
                <iidm:switch id="S1VL2_GH3_BREAKER" name="S1VL2_GH3_BREAKER" kind="BREAKER" retained="true" open="false" node1="10" node2="11"/>
                <iidm:switch id="S1VL2_BBS1_LD2_DISCONNECTOR" name="S1VL2_BBS1_LD2_DISCONNECTOR" kind="DISCONNECTOR" retained="false" open="true" node1="0" node2="12"/>
                <iidm:switch id="S1VL2_BBS1_LD3_DISCONNECTOR" name="S1VL2_BBS1_LD3_DISCONNECTOR" kind="DISCONNECTOR" retained="false" open="true" node1="0" node2="14"/>
                <iidm:switch id="S1VL2_BBS1_LD4_DISCONNECTOR" name="S1VL2_BBS1_LD4_DISCONNECTOR" kind="DISCONNECTOR" retained="false" open="true" node1="0" node2="16"/>
                <iidm:switch id="S1VL2_BBS2_LD2_DISCONNECTOR" name="S1VL2_BBS2_LD2_DISCONNECTOR" kind="DISCONNECTOR" retained="false" open="false" node1="1" node2="12"/>
                <iidm:switch id="S1VL2_BBS2_LD3_DISCONNECTOR" name="S1VL2_BBS2_LD3_DISCONNECTOR" kind="DISCONNECTOR" retained="false" open="false" node1="1" node2="14"/>
                <iidm:switch id="S1VL2_BBS2_LD4_DISCONNECTOR" name="S1VL2_BBS2_LD4_DISCONNECTOR" kind="DISCONNECTOR" retained="false" open="false" node1="1" node2="16"/>
                <iidm:switch id="S1VL2_LD2_BREAKER" name="S1VL2_LD2_BREAKER" kind="BREAKER" retained="true" open="false" node1="12" node2="13"/>
                <iidm:switch id="S1VL2_LD3_BREAKER" name="S1VL2_LD3_BREAKER" kind="BREAKER" retained="true" open="false" node1="14" node2="15"/>
                <iidm:switch id="S1VL2_BBS1_SHUNT_DISCONNECTOR" name="S1VL2_BBS1_SHUNT_DISCONNECTOR" kind="DISCONNECTOR" retained="false" open="false" node1="0" node2="18"/>
                <iidm:switch id="S1VL2_BBS2_SHUNT_DISCONNECTOR" name="S1VL2_BBS2_SHUNT_DISCONNECTOR" kind="DISCONNECTOR" retained="false" open="true" node1="1" node2="18"/>
                <iidm:switch id="S1VL2_SHUNT_BREAKER" name="S1VL2_SHUNT_BREAKER" kind="BREAKER" retained="true" open="false" node1="18" node2="19"/>
                <iidm:switch id="S1VL2_BBS1_LCC1_DISCONNECTOR" name="S1VL2_BBS1_LCC1_DISCONNECTOR" kind="DISCONNECTOR" retained="false" open="true" node1="0" node2="20"/>
                <iidm:switch id="S1VL2_BBS2_LCC1_DISCONNECTOR" name="S1VL2_BBS2_LCC1_DISCONNECTOR" kind="DISCONNECTOR" retained="false" open="false" node1="1" node2="20"/>
                <iidm:switch id="S1VL2_LCC1_BREAKER" name="S1VL2_LCC1_BREAKER" kind="BREAKER" retained="true" open="false" node1="20" node2="21"/>
                <iidm:switch id="S1VL2_BBS1_COUPLER_DISCONNECTOR" name="S1VL2_BBS1_COUPLER_DISCONNECTOR" kind="DISCONNECTOR" retained="false" open="false" node1="0" node2="22"/>
                <iidm:switch id="S1VL2_BBS2_COUPLER_DISCONNECTOR" name="S1VL2_BBS2_COUPLER_DISCONNECTOR" kind="DISCONNECTOR" retained="false" open="false" node1="1" node2="23"/>
                <iidm:switch id="S1VL2_COUPLER" name="S1VL2_COUPLER" kind="BREAKER" retained="true" open="false" node1="22" node2="23"/>
                <iidm:switch id="S1VL2_LD4_BREAKER" name="S1VL2_LD4_BREAKER" kind="BREAKER" retained="true" open="true" node1="16" node2="17"/>
                <iidm:switch id="line41_BREAKER" kind="BREAKER" retained="true" open="false" node1="24" node2="25"/>
                <iidm:switch id="line41_DISCONNECTOR" kind="DISCONNECTOR" retained="false" open="false" node1="25" node2="1"/>
                <iidm:bus v="400.0" angle="-1.1727622454220963" nodes="0,1,2,3,4,5,6,7,8,9,10,11,12,13,14,15,16,18,19,20,21,22,23,24,25"/>
            </iidm:nodeBreakerTopology>
            <iidm:generator id="GH1" energySource="HYDRO" minP="0.0" maxP="100.0" voltageRegulatorOn="true" targetP="85.357" targetV="400.0" targetQ="512.081" node="7" p="-52.601743885106785" q="-291.0861126124824">
                <iidm:reactiveCapabilityCurve>
                    <iidm:point p="0.0" minQ="-769.3" maxQ="860.0"/>
                    <iidm:point p="100.0" minQ="-864.55" maxQ="946.25"/>
                </iidm:reactiveCapabilityCurve>
            </iidm:generator>
            <iidm:generator id="GH3" energySource="HYDRO" minP="0.0" maxP="130.0" voltageRegulatorOn="true" targetP="100.0" targetV="400.0" targetQ="512.081" node="11" p="-57.418167050638836" q="-291.0861126124824">
                <iidm:reactiveCapabilityCurve>
                    <iidm:point p="0.0" minQ="-680.6" maxQ="688.1"/>
                    <iidm:point p="200.0" minQ="-681.725" maxQ="716.3500004"/>
                </iidm:reactiveCapabilityCurve>
            </iidm:generator>
            <iidm:generator id="GH2" energySource="HYDRO" minP="0.0" maxP="70.0" voltageRegulatorOn="true" targetP="50.0" targetV="400.0" targetQ="512.081" node="9" p="-27.071320719574754" q="-291.0861126124824">
                <iidm:reactiveCapabilityCurve>
                    <iidm:point p="0.0" minQ="-556.8" maxQ="557.4"/>
                    <iidm:point p="200.0" minQ="-553.514" maxQ="536.4"/>
                </iidm:reactiveCapabilityCurve>
            </iidm:generator>
            <iidm:load id="LD2" loadType="UNDEFINED" p0="60.0" q0="5.0" node="13" p="60.0" q="5.0"/>
            <iidm:load id="LD3" loadType="UNDEFINED" p0="60.0" q0="5.0" node="15" p="60.0" q="5.0"/>
            <iidm:load id="LD4" loadType="UNDEFINED" p0="40.0" q0="5.0" node="17"/>
            <iidm:shunt id="SHUNT" sectionCount="1" voltageRegulatorOn="false" node="19" p="0.0" q="1920.0">
                <iidm:shuntLinearModel bPerSection="-0.012" maximumSectionCount="1"/>
            </iidm:shunt>
            <iidm:vscConverterStation id="VSC1" name="VSC1" voltageRegulatorOn="true" lossFactor="1.1" voltageSetpoint="400.0" reactivePowerSetpoint="500.0" node="5" p="10.0" q="-291.0861126124824">
                <iidm:reactiveCapabilityCurve>
                    <iidm:point p="-100.0" minQ="-550.0" maxQ="570.0"/>
                    <iidm:point p="100.0" minQ="-550.0" maxQ="570.0"/>
                </iidm:reactiveCapabilityCurve>
            </iidm:vscConverterStation>
            <iidm:lccConverterStation id="LCC1" name="LCC1" lossFactor="1.1" powerFactor="0.6" node="21" p="80.0" q="106.66666004392853"/>
        </iidm:voltageLevel>
        <iidm:twoWindingsTransformer id="TWT" r="2.0" x="14.745" g="0.0" b="3.2E-5" ratedU1="225.0" ratedU2="400.0" node1="4" voltageLevelId1="S1VL1" node2="3" voltageLevelId2="S1VL2" p1="-28.605137847498174" q1="3326.444641964809" p2="99.17256967132175" q2="-2813.366550569856">
            <iidm:ratioTapChanger lowTapPosition="0" tapPosition="1" targetDeadband="0.0" loadTapChangingCapabilities="true" regulating="true" targetV="225.0">
                <iidm:terminalRef id="TWT" side="ONE"/>
                <iidm:step r="0.0" x="0.0" g="0.0" b="0.0" rho="0.85"/>
                <iidm:step r="0.0" x="0.0" g="0.0" b="0.0" rho="1.0"/>
                <iidm:step r="0.0" x="0.0" g="0.0" b="0.0" rho="1.15"/>
            </iidm:ratioTapChanger>
            <iidm:phaseTapChanger lowTapPosition="0" tapPosition="15" regulationMode="FIXED_TAP">
                <iidm:terminalRef id="TWT" side="ONE"/>
                <iidm:step r="39.78473" x="29.784725" g="0.0" b="0.0" rho="1.0" alpha="-42.8"/>
                <iidm:step r="31.720245" x="21.720242" g="0.0" b="0.0" rho="1.0" alpha="-40.18"/>
                <iidm:step r="23.655737" x="13.655735" g="0.0" b="0.0" rho="1.0" alpha="-37.54"/>
                <iidm:step r="16.263271" x="6.263268" g="0.0" b="0.0" rho="1.0" alpha="-34.9"/>
                <iidm:step r="9.542847" x="4.542842" g="0.0" b="0.0" rho="1.0" alpha="-32.26"/>
                <iidm:step r="3.4944773" x="3.4944773" g="0.0" b="0.0" rho="1.0" alpha="-29.6"/>
                <iidm:step r="-1.8818557" x="-1.8818527" g="0.0" b="0.0" rho="1.0" alpha="-26.94"/>
                <iidm:step r="-7.258195" x="-3.2581954" g="0.0" b="0.0" rho="1.0" alpha="-24.26"/>
                <iidm:step r="-11.962485" x="-7.962484" g="0.0" b="0.0" rho="1.0" alpha="-21.58"/>
                <iidm:step r="-15.994745" x="-11.994745" g="0.0" b="0.0" rho="1.0" alpha="-18.9"/>
                <iidm:step r="-19.354952" x="-15.354952" g="0.0" b="0.0" rho="1.0" alpha="-16.22"/>
                <iidm:step r="-22.043127" x="-22.043129" g="0.0" b="0.0" rho="1.0" alpha="-13.52"/>
                <iidm:step r="-24.73129" x="-24.731287" g="0.0" b="0.0" rho="1.0" alpha="-10.82"/>
                <iidm:step r="-26.747417" x="-26.747417" g="0.0" b="0.0" rho="1.0" alpha="-8.12"/>
                <iidm:step r="-28.091503" x="-28.091503" g="0.0" b="0.0" rho="1.0" alpha="-5.42"/>
                <iidm:step r="-28.763538" x="-28.763536" g="0.0" b="0.0" rho="1.0" alpha="-2.7"/>
                <iidm:step r="-28.763538" x="-28.763536" g="0.0" b="0.0" rho="1.0" alpha="0.0"/>
                <iidm:step r="-28.763538" x="-28.763536" g="0.0" b="0.0" rho="1.0" alpha="2.7"/>
                <iidm:step r="-28.091503" x="-28.091503" g="0.0" b="0.0" rho="1.0" alpha="5.42"/>
                <iidm:step r="-26.747417" x="-26.747417" g="0.0" b="0.0" rho="1.0" alpha="8.12"/>
                <iidm:step r="-24.73129" x="-24.731287" g="0.0" b="0.0" rho="1.0" alpha="10.82"/>
                <iidm:step r="-22.043127" x="-22.043129" g="0.0" b="0.0" rho="1.0" alpha="13.52"/>
                <iidm:step r="-19.354952" x="-19.354952" g="0.0" b="0.0" rho="1.0" alpha="16.22"/>
                <iidm:step r="-15.994745" x="-15.994745" g="0.0" b="0.0" rho="1.0" alpha="18.9"/>
                <iidm:step r="-11.962485" x="-11.962484" g="0.0" b="0.0" rho="1.0" alpha="21.58"/>
                <iidm:step r="-7.258195" x="-7.2581954" g="0.0" b="0.0" rho="1.0" alpha="24.26"/>
                <iidm:step r="-1.8818557" x="-1.8818527" g="0.0" b="0.0" rho="1.0" alpha="26.94"/>
                <iidm:step r="3.4944773" x="3.4944773" g="0.0" b="0.0" rho="1.0" alpha="29.6"/>
                <iidm:step r="9.542847" x="9.542842" g="0.0" b="0.0" rho="1.0" alpha="32.26"/>
                <iidm:step r="16.263271" x="16.263268" g="0.0" b="0.0" rho="1.0" alpha="34.9"/>
                <iidm:step r="23.655737" x="23.655735" g="0.0" b="0.0" rho="1.0" alpha="37.54"/>
                <iidm:step r="31.720245" x="31.720242" g="0.0" b="0.0" rho="1.0" alpha="40.18"/>
                <iidm:step r="39.78473" x="39.784725" g="0.0" b="0.0" rho="1.0" alpha="42.8"/>
            </iidm:phaseTapChanger>
            <iidm:currentLimits1 permanentLimit="1031.0"/>
            <iidm:currentLimits2 permanentLimit="1031.0"/>
        </iidm:twoWindingsTransformer>
    </iidm:substation>
    <iidm:substation id="CC2_site2" name="CC2_site2">
        <iidm:voltageLevel id="CC2_poste2" name="CC2_poste2" nominalV="225.0" topologyKind="NODE_BREAKER">
            <iidm:nodeBreakerTopology>
                <iidm:busbarSection id="CC2_poste2_1_1" node="0"/>
                <iidm:switch id="newLine2_BREAKER" kind="BREAKER" retained="true" open="false" node1="1" node2="2"/>
                <iidm:switch id="newLine2_DISCONNECTOR" kind="DISCONNECTOR" retained="false" open="false" node1="2" node2="0"/>
                <iidm:switch id="newGroup2_BREAKER" kind="BREAKER" retained="true" open="false" node1="3" node2="4"/>
                <iidm:switch id="newGroup2_DISCONNECTOR" kind="DISCONNECTOR" retained="false" open="false" node1="4" node2="0"/>
            </iidm:nodeBreakerTopology>
            <iidm:generator id="newGroup2" energySource="WIND" minP="0.0" maxP="15.0" voltageRegulatorOn="false" targetP="7.0" targetQ="4.0" node="3">
                <iidm:minMaxReactiveLimits minQ="-1.7976931348623157E308" maxQ="1.7976931348623157E308"/>
            </iidm:generator>
        </iidm:voltageLevel>
    </iidm:substation>
    <iidm:substation id="S2">
        <iidm:voltageLevel id="S2VL1" nominalV="400.0" lowVoltageLimit="390.0" highVoltageLimit="440.0" topologyKind="NODE_BREAKER">
            <iidm:nodeBreakerTopology>
                <iidm:busbarSection id="S2VL1_BBS" name="S2VL1_BBS" node="0"/>
                <iidm:switch id="S2VL1_BBS_GTH1_DISCONNECTOR" name="S2VL1_BBS_GTH1_DISCONNECTOR" kind="DISCONNECTOR" retained="false" open="false" node1="0" node2="1"/>
                <iidm:switch id="S2VL1_GTH1_BREAKER" name="S2VL1_GTH1_BREAKER" kind="BREAKER" retained="true" open="false" node1="1" node2="2"/>
                <iidm:switch id="S2VL1_BBS_VSC2_DISCONNECTOR" name="S2VL1_BBS_VSC2_DISCONNECTOR" kind="DISCONNECTOR" retained="false" open="false" node1="0" node2="3"/>
                <iidm:switch id="S2VL1_VSC2_BREAKER" name="S2VL1_VSC2_BREAKER" kind="BREAKER" retained="true" open="false" node1="3" node2="4"/>
                <iidm:switch id="S2VL1_BBS_LINES2S3_DISCONNECTOR" name="S2VL1_BBS_LINES2S3_DISCONNECTOR" kind="DISCONNECTOR" retained="false" open="false" node1="0" node2="5"/>
                <iidm:switch id="S2VL1_LINES2S3_BREAKER" name="S2VL1_LINES2S3_BREAKER" kind="BREAKER" retained="true" open="false" node1="5" node2="6"/>
                <iidm:switch id="line22_BREAKER" kind="BREAKER" retained="true" open="false" node1="7" node2="8"/>
                <iidm:switch id="line22_DISCONNECTOR" kind="DISCONNECTOR" retained="false" open="false" node1="8" node2="0"/>
                <iidm:switch id="line42_BREAKER" kind="BREAKER" retained="true" open="false" node1="9" node2="10"/>
                <iidm:switch id="line42_DISCONNECTOR" kind="DISCONNECTOR" retained="false" open="false" node1="10" node2="0"/>
                <iidm:bus v="336.4831145224508" angle="-0.20482189098634893" nodes="0,1,2,3,4,5,6,7,8,9,10"/>
            </iidm:nodeBreakerTopology>
            <iidm:generator id="GTH1" energySource="SOLAR" minP="0.0" maxP="100.0" voltageRegulatorOn="false" targetP="100.0" targetV="400.0" targetQ="70.0" node="2" p="-100.0" q="-70.0">
                <iidm:reactiveCapabilityCurve>
                    <iidm:point p="0.0" minQ="-76.8" maxQ="77.4"/>
                    <iidm:point p="100.0" minQ="-73.514" maxQ="76.4"/>
                </iidm:reactiveCapabilityCurve>
            </iidm:generator>
            <iidm:vscConverterStation id="VSC2" name="VSC2" voltageRegulatorOn="false" lossFactor="1.1" voltageSetpoint="0.0" reactivePowerSetpoint="120.0" node="4" p="-9.780605394241391" q="-120.0">
                <iidm:minMaxReactiveLimits minQ="-400.0" maxQ="500.0"/>
            </iidm:vscConverterStation>
        </iidm:voltageLevel>
    </iidm:substation>
    <iidm:line id="LINE_S3S4" r="0.009999999" x="13.100000024" g1="0.0" b1="0.0" g2="0.0" b2="0.0" node1="8" voltageLevelId1="S3VL1" node2="6" voltageLevelId2="S4VL1" p1="-83.75543798847323" q1="-1655.9679774167098" p2="83.99999999996058" q2="1976.344245090003">
        <iidm:currentLimits1 permanentLimit="931.0"/>
        <iidm:currentLimits2 permanentLimit="931.0">
            <iidm:temporaryLimit name="IST" value="1640.0" fictitious="true"/>
            <iidm:temporaryLimit name="LD71" acceptableDuration="60"/>
        </iidm:currentLimits2>
    </iidm:line>
    <iidm:line id="newLine" r="27.0" x="15.0" g1="0.0" b1="0.0" g2="0.0" b2="0.0" node1="1" voltageLevelId1="CC2_poste1" node2="1" voltageLevelId2="CC2_poste2">
        <iidm:currentLimits1 permanentLimit="300.0">
            <iidm:temporaryLimit name="IT20" acceptableDuration="1200" value="160.0"/>
            <iidm:temporaryLimit name="IT10" acceptableDuration="600" value="200.0"/>
            <iidm:temporaryLimit name="IT5" acceptableDuration="300" value="220.0"/>
        </iidm:currentLimits1>
        <iidm:currentLimits2 permanentLimit="180.0">
            <iidm:temporaryLimit name="IT20" acceptableDuration="1200" value="110.0"/>
            <iidm:temporaryLimit name="IT10" acceptableDuration="600" value="130.0"/>
            <iidm:temporaryLimit name="IT5" acceptableDuration="60" value="150.0"/>
        </iidm:currentLimits2>
    </iidm:line>
    <iidm:line id="line4" r="0.009999999" x="13.100000024" g1="0.0" b1="0.0" g2="0.0" b2="0.0" node1="24" voltageLevelId1="S1VL2" node2="9" voltageLevelId2="S2VL1" p1="-172.08133801755153" q1="1941.044340975857" p2="172.31866706385154" q2="-1630.1432586630112">
        <iidm:currentLimits1 permanentLimit="200.0">
            <iidm:temporaryLimit name="IT20" acceptableDuration="1200" value="120.0"/>
            <iidm:temporaryLimit name="IT10" acceptableDuration="600" value="160.0"/>
            <iidm:temporaryLimit name="IT5" acceptableDuration="300" value="190.0"/>
        </iidm:currentLimits1>
        <iidm:currentLimits2 permanentLimit="180.0">
            <iidm:temporaryLimit name="IT20" acceptableDuration="1200" value="110.0"/>
            <iidm:temporaryLimit name="IT10" acceptableDuration="600" value="130.0"/>
            <iidm:temporaryLimit name="IT5" acceptableDuration="60" value="150.0"/>
        </iidm:currentLimits2>
    </iidm:line>
    <iidm:line id="LINE_S2S3" r="0.009999999" x="19.100000024" g1="0.0" b1="0.0" g2="0.0" b2="0.0" node1="6" voltageLevelId1="S2VL1" node2="2" voltageLevelId2="S3VL1" p1="-39.445173934488594" q1="21.28576579589757" p2="39.44535137572199" q2="-20.946853005932027"/>
    <iidm:line id="line3" r="0.009999999" x="13.100000024" g1="0.0" b1="0.0" g2="0.0" b2="0.0" node1="9" voltageLevelId1="S1VL1" node2="11" voltageLevelId2="S3VL1" p1="-22.24494535588462" q1="-1399.9699418284442" p2="22.521072107213236" q2="1761.6960229042388">
        <iidm:currentLimits1 permanentLimit="200.0">
            <iidm:temporaryLimit name="IT20" acceptableDuration="1200" value="210.0"/>
            <iidm:temporaryLimit name="IT10" acceptableDuration="600" value="240.0"/>
            <iidm:temporaryLimit name="IT5" acceptableDuration="300" value="280.0"/>
        </iidm:currentLimits1>
        <iidm:currentLimits2 permanentLimit="180.0">
            <iidm:temporaryLimit name="IT20" acceptableDuration="1200" value="150.0"/>
            <iidm:temporaryLimit name="IT10" acceptableDuration="600" value="170.0"/>
            <iidm:temporaryLimit name="IT5" acceptableDuration="60" value="200.0"/>
        </iidm:currentLimits2>
    </iidm:line>
    <iidm:line id="line2" r="0.009999999" x="13.100000024" g1="0.0" b1="0.0" g2="0.0" b2="0.0" node1="7" voltageLevelId1="S1VL1" node2="7" voltageLevelId2="S2VL1" p1="23.378737932514237" q1="-1424.393700088154" p2="-23.092887738121547" q2="1798.8574928747835"/>
    <iidm:hvdcLine id="HVDC1" name="HVDC1" r="1.0" nominalV="400.0" convertersMode="SIDE_1_RECTIFIER_SIDE_2_INVERTER" activePowerSetpoint="10.0" maxP="300.0" converterStation1="VSC1" converterStation2="VSC2"/>
    <iidm:hvdcLine id="HVDC2" name="HVDC2" r="1.0" nominalV="400.0" convertersMode="SIDE_1_RECTIFIER_SIDE_2_INVERTER" activePowerSetpoint="80.0" maxP="300.0" converterStation1="LCC1" converterStation2="LCC2"/>
    <iidm:extension id="GH2">
        <gs:startup marginalCost="20.0"/>
    </iidm:extension>
    <iidm:extension id="GH1">
        <gs:startup marginalCost="20.0"/>
    </iidm:extension>
    <iidm:extension id="GROUP1">
        <apc:activePowerControl participate="false" participationFactor="0.0"/>
    </iidm:extension>
    <iidm:extension id="ABC">
        <gs:startup marginalCost="150.0"/>
    </iidm:extension>
    <iidm:extension id="GROUP2">
        <apc:activePowerControl participate="false" participationFactor="0.0"/>
        <gs:startup marginalCost="15.0"/>
    </iidm:extension>
    <iidm:extension id="GH3">
        <gs:startup marginalCost="27.0"/>
    </iidm:extension>
    <iidm:extension id="GROUP3">
        <apc:activePowerControl participate="false" participationFactor="0.0"/>
    </iidm:extension>
    <iidm:extension id="newGroup1">
        <apc:activePowerControl participate="false" participationFactor="0.0"/>
    </iidm:extension>
    <iidm:extension id="newGroup2">
        <apc:activePowerControl participate="false" participationFactor="0.0"/>
    </iidm:extension>
    <iidm:extension id="GTH2">
        <apc:activePowerControl participate="false" participationFactor="0.0"/>
        <gs:startup marginalCost="100.0"/>
    </iidm:extension>
    <iidm:extension id="GTH1">
        <apc:activePowerControl participate="false" participationFactor="0.0"/>
        <gs:startup marginalCost="100.0"/>
    </iidm:extension>
    <iidm:extension id="TEST1">
        <apc:activePowerControl participate="false" participationFactor="0.0"/>
        <gs:startup marginalCost="50.0"/>
    </iidm:extension>
</iidm:network>
